Version 4
SHEET 1 1420 680
WIRE 544 -144 336 -144
WIRE 544 -112 336 -112
WIRE 800 -112 704 -112
WIRE 544 -80 384 -80
WIRE 800 -48 800 -112
WIRE 816 -48 800 -48
WIRE 816 -16 784 -16
WIRE 1056 -16 976 -16
WIRE 384 16 384 -80
WIRE 384 16 336 16
WIRE 544 64 416 64
WIRE 544 96 480 96
WIRE 784 96 784 -16
WIRE 784 96 704 96
WIRE 384 128 384 16
WIRE 544 128 384 128
WIRE 816 192 816 16
WIRE 816 192 336 192
WIRE 336 224 336 192
WIRE 480 272 480 96
WIRE 416 368 416 64
FLAG 1056 48 0
FLAG 336 96 0
FLAG 336 304 0
FLAG 848 -320 Vdd
FLAG 848 -240 0
FLAG 336 -224 0
FLAG 416 448 0
FLAG 480 352 0
FLAG 336 -32 0
FLAG 624 -192 Vdd
FLAG 624 16 Vdd
FLAG 896 -96 Vdd
FLAG 0 0 Vdd
SYMBOL voltage 480 256 R0
WINDOW 123 0 0 Left 0
WINDOW 39 0 0 Left 0
SYMATTR InstName V1
SYMATTR Value PULSE(0 1 1n 10p 10p 2n 4n)
SYMBOL voltage 416 352 R0
WINDOW 123 0 0 Left 0
WINDOW 39 0 0 Left 0
SYMATTR InstName V2
SYMATTR Value PULSE(0 1 1n  10p 10p 4n 8n)
SYMBOL voltage 336 -128 M0
WINDOW 0 24 96 Left 2
WINDOW 3 24 16 Left 2
WINDOW 123 0 0 Left 0
WINDOW 39 0 0 Left 0
SYMATTR InstName V3
SYMATTR Value PULSE(0 1 1n 10p 10p 8n 16n)
SYMBOL voltage 336 -128 R180
WINDOW 123 0 0 Left 0
WINDOW 39 0 0 Left 0
SYMATTR InstName V4
SYMATTR Value PULSE(0 1 1n 10p 10p 16n 32n)
SYMBOL voltage 336 208 R0
WINDOW 3 -382 97 Left 2
WINDOW 123 0 0 Left 0
WINDOW 39 0 0 Left 0
SYMATTR Value PULSE(0 1 1n 10p 10p 32n 64n)
SYMATTR InstName V5
SYMBOL voltage 336 0 R0
WINDOW 3 -400 87 Left 2
WINDOW 123 0 0 Left 0
WINDOW 39 0 0 Left 0
SYMATTR Value PULSE(0 1 1n 10p 10p 64n 128n)
SYMATTR InstName V6
SYMBOL voltage 848 -336 R0
WINDOW 123 0 0 Left 0
WINDOW 39 0 0 Left 0
SYMATTR InstName V7
SYMATTR Value 1
SYMBOL cap 1040 -16 R0
SYMATTR InstName C1
SYMATTR Value 100f
SYMBOL symb_mux-21 624 -112 R0
SYMATTR InstName X4
SYMBOL symb_mux-21 624 96 R0
SYMATTR InstName X5
SYMBOL symb_mux-21 896 -16 R0
SYMATTR InstName X6
TEXT 64 -520 Left 2 !.include 90nm_bulk.txt
TEXT 72 -464 Left 2 !.tran 0 132n 0 1n
