Version 4
SHEET 1 1980 1112
WIRE 1232 64 1232 -16
WIRE -128 128 -336 128
WIRE 816 128 -128 128
WIRE 816 240 816 128
WIRE 832 240 816 240
WIRE 528 416 528 384
WIRE 528 416 -336 416
WIRE 832 416 832 304
WIRE 832 416 816 416
WIRE 528 448 528 416
WIRE 1120 528 1120 272
WIRE 1520 560 1520 528
WIRE 1520 560 1408 560
WIRE 1904 560 1808 560
WIRE 0 592 -80 592
WIRE 1520 592 1520 560
WIRE -128 624 -128 128
WIRE -80 624 -80 592
WIRE -80 624 -128 624
WIRE 368 624 288 624
WIRE -80 656 -80 624
WIRE 0 656 -80 656
WIRE 368 736 368 624
WIRE 1120 768 1120 592
WIRE 1120 768 656 768
WIRE 0 864 -80 864
WIRE -80 896 -80 864
WIRE -80 896 -336 896
WIRE 368 896 368 800
WIRE 368 896 288 896
WIRE -80 928 -80 896
WIRE 0 928 -80 928
FLAG 944 160 Vdd
FLAG 640 304 Vdd
FLAG 112 512 Vdd
FLAG 480 656 Vdd
FLAG 112 784 Vdd
FLAG 1632 448 Vdd
FLAG 1232 448 Vdd
FLAG 1232 -16 Vdd
FLAG -336 128 A
IOPIN -336 128 In
FLAG -336 416 X0
IOPIN -336 416 In
FLAG -336 896 X1
IOPIN -336 896 In
FLAG 1904 560 Y
IOPIN 1904 560 Out
FLAG 1232 64 Vdd
IOPIN 1232 64 In
SYMBOL lab_1_or-no 656 416 R0
SYMATTR InstName X3
SYMBOL lab_1_or-no 128 624 R0
SYMATTR InstName X4
SYMBOL lab_1_or-no 128 896 R0
SYMATTR InstName X5
SYMBOL lab_1_or-no 496 768 R0
SYMATTR InstName X6
SYMBOL lab_1_or-no 960 272 R0
SYMATTR InstName X7
SYMBOL lab_1_or-no 1248 560 R0
SYMATTR InstName X8
SYMBOL lab_1_or-no 1648 560 R0
SYMATTR InstName X9
TEXT -368 1000 Left 2 !.tran 0 20n 0 1p
TEXT -368 1096 Left 2 !.include 90nm_bulk.txt
