Version 4
SHEET 1 1004 680
WIRE 464 256 464 192
WIRE 304 304 112 304
WIRE 304 336 304 304
WIRE 352 336 304 336
WIRE 352 400 304 400
WIRE 304 416 304 400
WIRE 304 416 112 416
FLAG 32 416 0
FLAG 32 304 0
FLAG 464 112 0
FLAG 640 432 0
SYMBOL voltage 128 304 R90
WINDOW 0 -32 56 VBottom 2
WINDOW 3 32 56 VTop 2
WINDOW 123 0 0 Left 0
WINDOW 39 0 0 Left 0
SYMATTR InstName V1
SYMATTR Value PULSE(0 1 1n 10p 10p 2n 4n)
SYMBOL voltage 128 416 R90
WINDOW 0 -32 56 VBottom 2
WINDOW 3 32 56 VTop 2
WINDOW 123 0 0 Left 0
WINDOW 39 0 0 Left 0
SYMATTR InstName V2
SYMATTR Value PULSE(0 1 1n 10p 10p 4n 8n)
SYMBOL voltage 464 208 R180
WINDOW 0 24 96 Left 2
WINDOW 3 24 16 Left 2
WINDOW 123 0 0 Left 0
WINDOW 39 0 0 Left 0
SYMATTR InstName Vdd
SYMATTR Value 1
SYMBOL cap 624 368 R0
SYMATTR InstName C1
SYMATTR Value 100f
SYMBOL lab_1_or-no 480 368 R0
SYMATTR InstName X1
TEXT -112 -128 Left 2 !.include 90nm_bulk.txt
TEXT -112 -88 Left 2 !.tran 0 10n 0 1p
